7
optimized structure
 C  0.00040808872215438726 0.7634370218271154 -0.0001261971377529531
 C  -0.2345083207724218 -0.7933550362933761 -0.00041533597268773447
 O  1.3254417518639772 1.0088915287358806 0.0007506440010851182
 O  -0.8383959656034833 1.639113189873612 -0.0005902116460920273
 O  -1.3946927675654481 -1.2201971395550102 -0.0012018294550169136
 O  0.8812222891593818 -1.4147690414646008 0.0002498625974490758
 H  1.6361600917330232 0.04888166129469047 0.0008663933235407725
